---- qbsp / ericw-tools v0.18 ----
Input file: test.map
Output file: test.bsp

---- LoadMapFile ----
*** WARNING 06: No info_player_deathmatch entities in level
           60 faces
           10 brushes
            2 entities
            2 unique texnames
            8 texinfo

Opened WAD: textures.wad
Processing hull 0...
---- Brush_LoadEntity ----
           10 brushes
           13 planes
---- CSGFaces ----
           60 brushfaces
           52 csgfaces
           76 mergedfaces
---- SolidBSP ----
           32 split nodes
            5 solid leafs
           23 empty leafs
            5 water leafs
            0 detail leafs
            0 detail illusionary leafs
            0 detail fence leafs
            0 illusionary visblocker leafs
          100 leaffaces
          100 nodefaces
---- Portalize ----
           28 vis leafs
           28 vis clusters
           52 vis portals
---- FillOutside ----
           22 outleafs
---- MergeAll ----
           40 mergefaces
---- SolidBSP ----
           23 split nodes
           18 solid leafs
            1 empty leafs
            5 water leafs
            0 detail leafs
            0 detail illusionary leafs
            0 detail fence leafs
            0 illusionary visblocker leafs
           51 leaffaces
           51 nodefaces
---- Portalize ----
            6 vis leafs
            6 vis clusters
            0 vis portals
---- Tjunc ----
           44 world edges
          134 edge points
           24 edges added by tjunctions
            0 faces added by tjunctions
---- MakeFaceEdges ----
---- GrowRegions ----
Processing hull 1...
*** WARNING 19: No entities in empty space -- no filling performed (hull 1)
Processing hull 2...
*** WARNING 19: No entities in empty space -- no filling performed (hull 2)
---- WriteBSPFile ----
Wrote test.bsp
           39 planes              780
           49 vertexes            588
           23 nodes               552
            8 texinfo             320
           51 faces              1020
           96 clipnodes           768
            7 leafs               196
           51 marksurfaces        102
          228 surfedges           912
          115 edges               460
            2 textures          10972
              lightdata             0
              visdata               0
              entdata             199

0.070 seconds elapsed
Peak memory usage: 448970 (438.4k)
